
*** ChampSim Multicore Out-of-Order Simulator ***

Warmup Instructions: 1000000
Simulation Instructions: 10000000
Number of CPUs: 1
LLC sets: 2048
LLC ways: 16
Off-chip DRAM Size: 4096 MB Channels: 1 Width: 64-bit Data Rate: 3200 MT/s

CPU 0 runs /Users/tarushi/Downloads/ChampSim_optimised/dpc3_traces/473.astar-153B.champsimtrace.xz
CPU 0 Bimodal branch predictor

Warmup complete CPU 0 instructions: 1000003 cycles: 453122 (Simulation time: 0 hr 0 min 2 sec) 

891 1156
890 1157
889 487
888 1311
887 1160
886 575
885 646
425 1622
112 1399
884 574
883 659
882 658
1777 134
1674 1839
881 488
1070 2045
1167 305
880 93
1025 316
879 92
878 199
876 572
875 571
874 45
740 570
376 1549
793 1547
869 560
377 1915
868 1860
867 555
866 1304
1089 1443
1090 717
1091 1018
2020 329
1734 489
1697 1367
1698 871
1593 1378
1228 1516
1169 52
852 541
1230 708
401 135
1295 639
850 540
849 326
1297 851
1394 146
1101 1435
1102 1021
848 1831
1449 1611
1410 1615
1446 1123
1518 845
1445 1117
1706 1088
1905 339
102 1472
1890 1629
1889 662
1442 1625
1441 1115
921 1329
836 535
1440 1262
868 1860
665 2024
612 1110
153 141
740 570
1188 1307
921 1329
793 1547
612 1110
665 2024
36 1237
1764 648
281 547
153 141
89 1371
217 566
1892 1107
153 141
100 1373
1426 1627
665 2024
1425 330
1423 1095
1057 1416
1295 639
1422 1094
1537 728
1454 343
1337 1239
1201 667
1420 1124
1230 708
1935 863
433 333
1419 1125
1418 1069
1713 1640
1711 1643
1730 567
1794 183
1858 415
430 180
1710 609
1793 186
1729 90
1709 1932
1708 464
1707 614
1966 840
105 1471
1967 573
1706 1088
1217 623
1359 136
271 71
193 796
1705 1363
335 318
225 1822
1423 1095
1345 443
1487 444
1551 1276
513 1270
591 187
545 1310
655 1726
1409 1136
1702 1083
1487 444
1441 1115
591 187
513 1270
719 289
545 1310
1743 1300
1665 1703
1807 201
1697 1367
1679 304
1729 90
1699 618
1761 48
1551 1276
1793 186
1698 871
1871 240
1825 448
257 515
1697 1367
335 318
399 64
1345 443
1696 131
1423 1095
1295 639
1153 1092
1231 139
1185 1500
1103 59
961 295
1039 138
993 413
1743 1300
1665 1703
783 7
1697 1367
1167 305
911 140
911 140
769 809
847 1023
719 289
577 1908
655 1726
527 191
385 1564
505 1542
1740 358
1687 133
2001 285
14 205
1685 1068
273 823
655 1726
1294 1555
1934 198
654 1393
1684 1065
270 615
129 1918
130 319
398 159
1666 960
81 284
80 1509
238 250
79 223
1969 230
1802 857
78 634
77 649
1954 469
76 1098
75 1832
676 2029
422 1106
463 1992
257 515
1772 55
2033 244
334 424
1166 967
1422 1094
1423 1095
404 1130
1518 845
401 135
400 1597
399 64
398 159
1976 1259
1977 712
588 1385
1518 845
513 1270
593 63
394 347
654 1393
1678 439
209 632
1679 304
769 809
770 296
880 93
724 1131
1417 1618
165 1071
416 1631
722 1614
612 1110
721 151
335 318
720 595
696 507
697 202
719 289
848 1831
80 1509
848 1831
1744 86
718 303
716 1632
715 387
625 414
910 1316
977 321
714 39
1038 1447
1009 959
713 600
1102 1021
334 424
241 1847
1182 1328
1181 1495
1180 1332
1217 623
558 1338
1218 247
1179 1335
1449 1611
1178 1340
49 215
1177 1341
1176 1485
804 520
38 1238
2018 22
1175 1369
1174 1480
1888 598
480 1567
1173 1477
888 1311
889 487
1804 858
1172 1736
1281 1541
1678 439
1738 872
1171 1719
1422 1094
433 333
529 237
1230 708
561 1690
401 135
1170 301
1649 220
1678 439
1617 1400
1169 52
1742 638
1841 901
1870 69
1809 644
1168 955
1934 198
2033 244
2001 285
1167 305
1166 967
1165 990
849 326
846 253
1164 1372
206 101
1345 443
526 239
1346 1701
36 1237
35 1712
34 954
1641 378
112 1399
1994 1301
33 1574
113 9
32 1575
25 1210
24 1206
241 1847
1521 552
1450 1063
433 333
1482 987
1183 1325
18 381
1184 1498
17 62
1185 1500
16 1015
1186 1752
15 279
1187 1308
14 205
1188 1307
1188 1307
672 1468
12 1595
11 1054
10 214
1122 1405
1194 1856
1195 797
1710 609
129 1918
1912 1249
1913 1250
1197 1507
1936 435
1198 287
782 1854
1489 233
3 310
78 634
2 1820
1422 1094
881 488
128 1427
217 566
1409 1136
430 180
1410 1615
1609 1113
1072 4
1161 1053
752 1584
681 1857
212 653
745 1302
713 600
211 91
210 95
1418 1069
1201 667
2026 982
209 632
241 1847
208 1503
207 324
741 356
992 456
206 101
760 1523
761 810
1868 1499
204 624
462 1060
1521 552
203 1844
1998 637
1041 392
1294 1555
275 73
1473 1590
398 159
1474 1203
274 1214
273 823
767 365
685 613
272 53
170 1079
271 71
433 333
270 615
269 500
996 1462
268 2039
267 1926
1797 855
1888 598
266 807
1806 1467
1976 1259
1977 712
265 1531
976 898
264 1268
401 135
263 1535
302 31
451 1596
1409 1136
1665 1703
404 1130
514 984
1518 845
1646 1008
1537 728
559 1339
815 525
1202 1508
242 58
1522 816
242 58
434 1133
114 54
401 135
497 1017
400 1597
1762 491
998 1049
399 64
398 159
1184 1498
933 1336
868 1860
902 583
934 830
1784 723
1785 1850
394 347
276 828
1870 69
433 333
277 1583
1104 1432
1665 1703
1230 708
643 446
707 475
270 615
771 213
302 31
835 636
270 615
899 1829
302 31
963 1735
1422 1094
1027 405
1454 343
1091 1018
398 159
1155 315
430 180
1219 246
1283 616
1518 845
498 254
625 414
626 190
522 1682
596 407
690 870
742 357
804 520
594 1900
32 1575
593 63
992 456
1345 443
592 1901
1656 431
1657 1694
1580 1512
591 187
309 1357
16 1015
590 1904
528 1519
1360 388
1488 903
1806 1467
1489 233
588 1385
77 649
1293 1248
129 1918
1449 1611
1729 90
1446 1123
554 1331
1445 1117
818 1526
1797 855
1760 1196
1669 1939
1442 1625
416 1631
1504 1244
1445 1117
1441 1115
224 1587
1413 1616
1184 1498
1440 1262
224 1587
1952 28
1504 1244
544 1309
160 461
672 1468
1669 1939
1184 1498
1312 1753
1221 1303
1696 131
160 461
1440 1262
224 1587
421 1626
480 1567
1440 1262
165 1071
224 1587
1184 1498
165 1071
224 1587
928 482
2021 1453
610 1704
32 1575
1989 1199
611 1
612 1110
1426 1627
1425 330
676 2029
972 341
1721 580
1423 1095
130 319
322 1043
1346 1701
1806 1467
1282 617
1537 728
1422 1094
821 1226
1742 638
1521 552
1420 1124
1232 1288
1552 1277
619 1428
1419 1125
1680 1475
1744 86
1418 1069
1872 382
1936 435
1417 1618
1104 1432
1040 1695
622 1896
912 1135
656 13
16 1015
1414 1128
1232 1288
625 414
1413 1616
656 13
626 190
1411 1064
1806 1467
1795 320
1731 841
714 39
882 658
746 838
1010 1037
906 726
1074 1916
938 551
1202 1508
50 60
50 60
1994 1301
946 509
2026 982
242 58
1312 1753
1184 1498
1221 1303
1029 1402
1620 346
677 336
869 560
743 1862
997 1658
966 1366
1826 437
17 62
81 284
1873 68
2001 285
1954 469
2 1820
34 954
1617 1400
1922 147
273 823
226 82
337 189
194 732
465 221
418 630
529 237
386 374
657 282
610 1704
721 151
578 234
849 326
1612 1396
1080 1429
1081 417
1004 397
1610 1391
1609 1113
181 1108
526 239
2001 285
1680 1475
1679 304
1678 439
1921 1016
2030 1511
1677 438
749 543
1791 589
1805 1732
1983 1222
1676 956
1675 1376
1674 1839
1673 957
197 585
352 403
1672 2023
930 1493
1671 641
312 1364
313 495
2 1820
1670 442
1781 219
1669 1939
78 634
2033 244
1668 1032
784 1852
1667 2042
1666 960
153 141
1645 1444
152 142
1997 1823
1920 1550
150 1030
1089 1443
1998 637
149 1940
148 406
67 668
1998 637
229 1579
1440 1262
1440 1262
143 968
1401 1607
1742 638
258 1855
693 864
1681 396
137 986
334 424
1361 1910
130 319
418 630
416 1631
895 1152
1025 316
1006 409
1024 402
1005 1042
127 1014
1504 1244
353 1375
1441 1115
404 1130
354 1374
760 1523
761 810
117 1055
401 135
1909 1927
2037 1285
400 1597
181 1108
309 1357
399 64
373 1256
501 1255
398 159
565 1368
693 864
158 1654
757 557
885 646
949 27
949 27
160 461
821 1226
161 1061
1781 219
1077 1919
162 627
394 347
526 239
163 904
612 1110
611 1
610 1704
974 395
897 1314
1293 1248
127 1014
323 447
2030 1511
1505 1755
1350 1213
416 1631
596 407
355 1470
594 1900
930 1493
684 342
633 1899
593 63
592 1901
1141 1383
1233 621
562 1691
785 8
1490 1568
465 221
1522 816
1361 1910
591 187
654 1393
273 823
590 1904
1165 990
419 1628
588 1385
462 1060
782 1854
1233 621
654 1393
1265 1275
14 205
273 823
462 1060
1073 216
587 969
421 1626
586 973
744 1865
1409 1136
743 1862
742 357
127 1014
741 356
740 570
739 94
269 500
738 839
737 1502
767 365
1997 1823
736 1159
1791 589
735 1158
734 103
733 1150
1569 232
677 336
931 827
866 1304
867 555
1721 580
1269 1263
1330 1565
498 254
1842 951
782 1854
1745 255
1809 644
1873 68
1872 382
434 1133
1808 450
1490 1568
724 1131
718 303
273 823
894 576
893 104
892 1313
891 1156
1985 499
890 1157
889 487
888 1311
229 1579
887 1160
352 403
886 575
98 314
99 1917
885 646
743 1862
929 822
993 413
673 1469
737 1502
884 574
929 822
883 659
993 413
882 658
1185 1500
881 488
1446 1123
1505 1755
1414 1128
880 93
1569 232
1697 1367
879 92
1761 48
1830 900
1889 662
1798 548
878 199
1953 389
2022 440
33 1574
1990 542
97 311
166 1843
225 1822
876 572
998 1049
875 571
874 45
1784 723
1785 1850
1964 1318
322 1043
1774 243
1586 663
1333 1727
398 159
401 135
745 1302
746 838
269 500
747 833
869 560
868 1860
748 47
782 1854
468 288
466 1052
545 1310
1350 1213
465 221
463 1992
462 1060
760 1523
76 1098
761 810
1461 989
242 58
460 1200
590 1904
433 333
846 253
273 823
660 896
643 446
1390 1594
769 809
657 282
656 13
673 1469
655 1726
654 1393
229 1579
737 1502
933 1336
997 1658
677 336
741 356
1351 1212
741 356
651 1724
108 799
1337 1239
650 1723
1522 816
529 237
782 1854
17 62
1229 1517
643 446
478 1240
910 1316
881 488
897 1314
961 295
1646 1008
1422 1094
1025 316
1089 1443
880 93
1153 1092
705 859
879 92
878 199
270 615
771 213
876 572
197 585
286 345
350 1384
875 571
874 45
869 560
868 1860
867 555
866 1304
664 1828
665 2024
1414 1128
1505 1755
740 570
933 1336
997 1658
165 1071
852 541
672 1468
1282 617
850 540
673 1469
974 395
204 624
849 326
373 1256
674 1059
1330 1565
1458 278
1354 1693
434 1133
370 154
298 476
675 331
848 1831
591 187
783 7
49 215
1359 136
676 2029
847 1023
677 336
846 253
678 1067
974 395
1425 330
844 538
679 132
1859 408
1027 405
1923 72
1466 1591
1465 383
1464 1592
769 809
897 1314
961 295
1025 316
1089 1443
1461 989
1153 1092
1217 623
1460 1007
1281 1541
1473 1590
974 395
1459 1011
1473 1590
1006 409
1537 728
1458 278
1601 1093
174 1741
1665 1703
1998 637
1457 1928
1729 90
2030 1511
1806 1467
1455 1146
1793 186
1454 343
1454 343
1452 1606
1446 1123
1451 1139
737 1502
1450 1063
1449 1611
1889 662
263 1535
293 511
933 1336
1446 1123
1445 1117
263 1535
165 1071
263 1535
1442 1625
263 1535
677 336
1441 1115
1440 1262
229 1579
293 511
999 1659
229 1579
167 1849
1957 1111
1799 1324
1765 384
882 658
883 659
884 574
885 646
886 575
1892 1107
887 1160
888 1311
1912 1249
236 628
1913 1250
1006 409
889 487
1426 1627
1922 147
1425 330
890 1157
266 807
1650 423
1266 1271
891 1156
1162 231
1653 1911
1423 1095
81 284
892 1313
2002 669
1999 157
17 62
1998 637
893 104
1422 1094
894 576
1457 1928
1038 1447
895 1152
1420 1124
42 144
65 1292
1230 708
1761 48
38 1238
1478 1204
164 338
165 1071
161 1061
36 1237
35 1712
678 1067
739 94
34 954
33 1574
312 1364
313 495
12 1595
1909 1927
32 1575
1906 1929
1194 1856
1138 1392
818 1526
49 215
207 324
25 1210
24 1206
1360 388
2000 581
208 1503
18 381
2034 188
337 189
17 62
1102 1021
401 135
16 1015
286 345
1670 442
1825 448
419 1628
483 375
281 547
1510 1245
545 1310
280 539
162 627
277 1583
276 828
376 1549
44 1243
377 1915
275 73
106 1381
178 1754
970 1733
1074 1916
1002 410
274 1214
1778 156
273 823
1586 663
1802 857
272 53
1589 1377
1803 1749
271 71
1362 1207
529 237
400 1597
1297 851
270 615
269 500
1166 967
433 333
268 2039
1988 1578
513 1270
1038 1447
483 375
947 1100
1702 1083
1697 1367
1734 489
481 0
1633 317
480 1567
546 1501
1633 317
1634 1407
478 1240
742 357
803 1559
1699 618
1763 252
1798 548
1830 900
1858 415
1038 1447
889 487
204 624
888 1311
1771 661
1653 1911
1650 423
1770 251
1651 429
1674 1839
818 1526
1706 1088
1202 1508
842 51
946 509
874 45
946 509
778 371
882 658
754 1861
586 973
690 870
562 1691
394 347
498 254
426 297
468 288
370 154
178 1754
2034 188
1962 1319
290 1613
466 1052
1906 1929
10 214
114 54
42 144
291 41
465 221
50 60
1994 1301
690 870
2026 982
292 1129
1202 1508
1778 156
293 511
463 1992
462 1060
1232 1288
1394 146
657 282
274 1214
460 1200
785 8
401 135
298 476
459 1192
593 63
458 1149
785 8
1361 1910
1230 708
1489 233
299 1636
1978 711
322 1043
514 984
1070 2045
1985 499
1986 1520
1977 712
1976 1259
1975 1261
1973 729
1972 1260
1971 731
1970 1863
323 447
1987 635
1969 230
1968 359
1967 573
1966 840
1965 111
1964 1318
1766 1837
1963 853
1569 232
1962 1319
35 1712
102 1472
1961 1621
1960 1119
1959 601
1958 477
1957 1111
1956 602
1955 470
1954 469
1635 1430
1953 389
1952 28
1951 1358
1950 607
1949 1085
1948 1058
1947 1838
1946 1655
1945 455
1944 1387
1943 453
1942 1456
494 1020
1941 642
236 628
953 1737
497 1017
1938 1720
498 254
1937 445
1936 435
1738 872
1714 710
1715 1848
1717 670
1739 1513
1935 863
1233 621
465 221
501 1255
1934 198
1933 1424
1521 552
1294 1555
1989 1199
466 1052
498 254
1233 621
1333 1727
1776 2035
1609 1113
1641 378
1801 856
1330 1565
1798 548
1889 662
1326 645
1410 1615
1283 616
1923 72
1859 408
1070 2045
716 1632
1323 1562
1322 508
1707 614
1845 1895
1706 1088
1842 951
1232 1288
497 1017
977 321
434 1133
771 213
1506 1558
1505 1755
1504 1244
1968 359
2025 1692
1582 631
558 1338
814 504
1830 900
1633 317
1496 1563
748 47
1081 417
1411 1064
1492 1241
1667 2042
1674 1839
1779 709
1781 219
1675 1376
1490 1568
722 1614
209 632
1489 233
1337 1239
1488 903
208 1503
721 151
1487 444
1009 959
1739 1513
1738 872
846 253
1795 320
1734 489
1993 1298
1731 841
262 367
353 1375
1730 567
1445 1117
1729 90
1728 1151
1913 1250
1912 1249
1909 1927
1510 1245
1906 1929
1905 339
1955 470
1514 854
1902 306
1036 1448
1145 1380
1518 845
757 557
1898 1096
1897 1126
755 826
554 1331
1521 552
1997 1823
1522 816
1996 877
400 1597
1228 1516
268 2039
1524 1254
2011 599
18 381
2010 1118
1001 1833
2009 485
2008 806
2007 798
1956 602
36 1237
102 1472
2006 1317
35 1712
2005 584
2004 1144
292 1129
164 338
2003 1599
2002 669
2001 285
522 1682
2000 581
629 6
523 1286
1999 157
1998 637
177 30
1997 1823
1990 542
178 1754
177 30
176 606
175 1437
174 1741
173 608
1634 1407
354 1374
418 630
172 1086
292 1129
171 1084
170 1079
422 1106
169 493
323 447
1582 631
908 349
168 620
1451 1139
1525 808
167 1849
1450 1063
166 1843
1678 439
2001 285
427 1127
2001 285
50 60
1795 320
426 297
425 1622
1454 343
422 1106
421 1626
419 1628
165 1071
293 511
418 630
416 1631
179 604
100 1373
181 1108
184 37
185 829
404 1130
940 1637
910 1316
643 446
401 135
1418 1069
691 865
704 1109
400 1597
1524 1254
692 29
705 859
693 864
1419 1125
399 64
706 1747
398 159
707 475
2033 244
1742 638
814 504
1297 851
754 1861
812 1235
811 364
835 636
878 199
1987 635
944 1756
271 71
193 796
166 1843
102 1472
804 520
1446 1123
803 1559
1889 662
942 832
963 1735
554 1331
629 6
1166 967
1809 644
707 475
1091 1018
526 239
2025 1692
434 1133
196 351
228 537
1057 1416
462 1060
334 424
270 615
526 239
1466 1591
684 342
1870 69
1219 246
771 213
835 636
654 1393
707 475
686 502
942 832
963 1735
522 1682
1047 2044
815 525
1046 432
1045 1408
817 1846
818 1526
819 531
820 360
1041 392
821 1226
1040 1695
1039 138
1841 901
1102 1021
1165 990
1101 1435
824 1924
1038 1447
1347 1903
558 1338
1333 1727
1667 2042
1993 1298
1330 1565
225 1822
1798 548
1761 48
1326 645
579 391
462 1060
1323 1562
910 1316
1091 1018
1070 2045
1322 508
1155 315
1530 1540
460 1200
1617 1400
974 395
1164 1372
1668 1032
1648 1421
167 1849
1560 1280
1505 1755
1670 442
1702 1083
1569 232
1556 1279
1921 1016
1998 637
1667 2042
1553 1278
1902 306
1038 1447
771 213
1552 1277
494 1020
1551 1276
1649 220
909 348
1785 1850
1784 723
1348 1576
1795 320
590 1904
1783 1561
1782 1566
1923 72
1781 219
1780 506
1390 1594
1161 1053
1586 663
1514 854
1779 709
1778 156
1777 134
1776 2035
1446 1123
743 1862
1775 533
1633 317
1774 243
1773 534
102 1472
334 424
1772 55
750 549
1091 1018
718 303
1771 661
1923 72
1770 251
974 395
1923 72
1769 2031
1768 1216
1425 330
1767 1215
204 624
1104 1432
2025 1692
963 1735
2022 440
1796 1320
2021 1453
3 310
622 1896
2020 329
2025 1692
112 1399
2019 21
2018 22
2017 411
2016 1463
164 338
2015 457
2014 471
742 357
2013 1343
1870 69
1953 389
2012 1974
1006 409
259 327
2011 599
238 250
1987 635
2010 1118
259 327
366 1284
2009 485
76 1098
2008 806
1457 1928
1805 1732
2007 798
1786 1554
2006 1317
1787 518
2005 584
1788 517
2004 1144
908 349
1036 1448
1804 858
1789 516
2003 1599
1790 1251
2002 669
1791 589
2001 285
2000 581
1999 157
322 1043
1998 637
416 1631
451 1596
878 199
1993 1298
1674 1839
626 190
404 1130
1569 232
195 486
78 634
206 101
401 135
67 668
400 1597
1786 1554
76 1098
1787 518
399 64
720 595
398 159
622 1896
963 1735
619 1428
688 1639
937 1864
559 1339
291 41
1505 1755
1414 1128
1446 1123
1446 1123
612 1110
679 132
78 634
611 1
108 799
610 1704
707 475
46 61
110 218
752 1584
804 520
803 1559
260 800
110 218
795 1548
905 725
879 92
880 93
687 26
794 1253
793 1547
792 1546
791 1539
790 1257
789 1116
910 1316
1027 405
788 1851
14 205
259 327
787 1406
786 727
1582 631
899 1829
785 8
908 349
625 414
626 190
784 1852
1648 1421
972 341
783 7
400 1597
994 23
1796 1320
993 413
1390 1594
992 456
1988 1578
991 1652
1039 138
1989 1199
1231 139
1796 1320
1797 855
1455 1146
1029 1402
1423 1095
965 1082
1072 4
109 1382
1778 156
1706 1088
934 830
993 413
981 1647
14 205
33 1574
980 1481
123 1434
940 1637
238 250
1091 1018
130 319
1026 1700
962 1365
942 832
963 1735
977 321
1931 1398
976 898
75 1832
971 873
907 730
1035 436
975 1991
1803 1749
1993 1298
1141 1383
1294 1555
1140 1389
777 1534
1138 1392
1010 1037
1802 857
1137 640
1985 499
654 1393
1134 332
902 583
163 904
14 205
834 652
835 636
260 800
1219 246
260 800
1675 1376
1419 1125
651 1724
272 53
1420 1124
208 1503
1676 956
1348 1576
1326 645
1797 855
847 1023
837 536
965 1082
975 1991
261 200
162 627
2017 411
1166 967
657 282
1986 1520
1297 851
1646 1008
206 101
1026 1700
46 61
1295 639
1027 405
848 1831
843 74
1294 1555
1419 1125
1293 1248
1163 1925
879 92
777 1534
1906 1929
1560 1280
1089 1443
1742 638
102 1472
1442 1625
1698 871
1766 1837
1699 618
1556 1279
974 395
110 218
78 634
1988 1578
1998 637
1553 1278
1796 1320
1808 450
1552 1277
1739 1513
880 93
1551 1276
1995 490
1912 1249
527 191
1349 1577
1518 845
1909 1927
772 1532
1967 573
1641 378
818 1526
1802 857
1906 1929
1697 1367
2017 411
1734 489
1441 1115
1905 339
2018 22
1902 306
1898 1096
1897 1126
2019 21
1569 232
2030 1511
1966 840
1668 1032
1892 1107
1986 1520
1006 409
1891 325
1890 1629
1040 1695
459 1192
1889 662
1675 1376
176 606
2000 581
1888 598
1887 1142
1994 1301
97 311
836 535
1870 69
96 1012
559 1339
1797 855
591 187
109 1382
1711 1643
1609 1113
89 1371
1906 1929
88 1722
819 531
87 1476
1169 52
2018 22
84 1306
934 830
1166 967
1090 717
81 284
1934 198
80 1509
462 1060
196 351
79 223
78 634
971 873
907 730
843 74
272 53
77 649
779 805
715 387
272 53
76 1098
651 1724
459 1192
1232 1288
75 1832
779 805
11 1054
272 53
1072 4
292 1129
291 41
1902 306
290 1613
1348 1576
1449 1611
286 345
2020 329
422 1106
390 1051
676 2029
740 570
868 1860
774 372
932 1491
998 1049
281 547
280 539
65 1292
782 1854
1090 717
1745 255
494 1020
277 1583
686 502
276 828
1026 1700
1198 287
275 73
274 1214
1176 1485
836 535
1742 638
1175 1369
1797 855
399 64
1174 1480
1173 1477
430 180
1417 1618
1518 845
1710 609
1172 1736
1171 1719
1842 951
1738 872
1170 301
97 311
193 796
270 615
1169 52
206 101
1168 955
167 1849
1167 305
935 1486
1166 967
966 1366
718 303
962 1365
1165 990
1164 1372
654 1393
1326 645
1163 1925
1348 1576
78 634
1162 231
1161 1053
1505 1755
1359 136
1504 1244
1796 1320
1774 243
1774 243
1775 533
1715 1848
1770 251
1714 710
935 1486
1496 1563
1767 1215
269 500
225 1822
1217 623
781 801
1294 1555
1122 1405
110 218
1668 1032
1492 1241
1025 316
961 295
897 1314
750 549
1490 1568
1796 1320
974 395
1006 409
1294 1555
1177 1341
1489 233
1178 1340
1488 903
1179 1335
1487 444
1995 490
1963 853
836 535
1962 1319
1797 855
1961 1621
1960 1119
1959 601
1161 1053
494 1020
1958 477
970 1733
1957 1111
1170 301
1746 1114
66 671
1956 602
785 8
1933 1424
1805 1732
1955 470
1293 1248
1729 90
462 1060
1761 48
1806 1467
1954 469
1953 389
1952 28
1951 1358
1950 607
2020 329
1582 631
1949 1085
1902 306
1870 69
1948 1058
196 351
260 800
1806 1467
1947 1838
622 1896
590 1904
1946 1655
1774 243
1742 638
1506 1558
1945 455
1230 708
526 239
2 1820
1944 1387
1943 453
238 250
1942 1456
772 1532
206 101
836 535
110 218
1510 1245
1941 642
718 303
750 549
1938 1720
1141 1383
1140 1389
837 536
196 351
174 1741
197 585
175 1437
1138 1392
1487 444
1413 1616
399 64
1349 1577
527 191
1669 1939
1221 1303
559 1339
1137 640
773 1274
1487 444
1134 332
1668 1032
1134 332
681 1857
1767 1215
999 1659
1959 601
1767 1215
1959 601
935 1486
1767 1215
1959 601
1122 1405
679 132
935 1486
679 132
1964 1318
1965 111
167 1849
743 1862
1966 840
999 1659
935 1486
1967 573
1968 359
743 1862
679 132
1969 230
1970 1863
1971 731
577 1908
786 727
1972 1260
1973 729
206 101
78 634
1348 1576
1793 186
558 1338
1975 1261
1105 1050
1976 1259
1104 1432
1442 1625
1349 1577
207 324
1348 1576
206 101
1441 1115
1440 1262
425 1622
941 1638
238 250
1002 410
1075 1894
274 1214
98 314
1869 985
1793 186
1825 448
1742 638
1665 1703
1134 332
1102 1021
1426 1627
1425 330
238 250
1668 1032
1785 1850
261 200
1784 723
1783 1561
1782 1566
1807 201
1454 343
1769 2031
1781 219
1780 506
1197 1507
1779 709
1965 111
1778 156
1777 134
1830 900
1892 1107
269 500
1677 438
1569 232
961 295
993 413
1776 2035
1537 728
1933 1424
1889 662
1775 533
1774 243
1773 534
194 732
210 95
1772 55
1771 661
1988 1578
1998 637
2030 1511
1770 251
1774 243
1769 2031
1768 1216
1996 877
116 1404
1349 1577
1295 639
115 1056
114 54
965 1082
113 9
173 608
265 1531
112 1399
1353 1581
2025 1692
749 543
1993 1298
110 218
1773 534
425 1622
109 1382
941 1638
108 799
553 1494
107 328
109 1382
521 983
106 1381
1005 1042
105 1471
1773 534
102 1472
558 1338
100 1373
226 82
1786 1554
99 1917
164 338
1798 548
1787 518
98 314
654 1393
705 859
1788 517
97 311
1789 516
46 61
196 351
14 205
1790 1251
96 1012
260 800
1582 631
1646 1008
1791 589
512 1267
1773 534
513 1270
514 984
89 1371
88 1722
87 1476
84 1306
610 1704
1999 157
553 1494
676 2029
742 357
1218 247
466 1052
1730 567
1810 1836
685 613
1038 1447
772 1532
1070 2045
836 535
1934 198
1966 840
596 407
769 809
686 502
594 1900
1074 1916
1073 216
1029 1402
1999 157
1072 4
1871 240
1452 1606
940 1637
1645 1444
521 983
622 1896
1070 2045
1762 491
1938 1720
578 234
1166 967
1217 623
704 1109
768 1528
1165 990
611 1
1057 1416
612 1110
238 250
206 101
430 180
398 159
1348 1576
622 1896
619 1428
1047 2044
622 1896
1046 432
1045 1408
625 414
626 190
1041 392
1040 1695
1668 1032
206 101
629 6
238 250
1230 708
1039 138
1038 1447
1036 1448
633 1899
1035 436
1776 2035
1350 1213
1775 533
1359 136
1774 243
1773 534
975 1991
1772 55
1646 1008
745 1302
1771 661
1644 1019
1770 251
1769 2031
1768 1216
1830 900
1892 1107
610 1704
850 540
1794 183
1767 1215
1874 1914
1826 437
722 1614
1858 415
1766 1837
1938 1720
1890 1629
1746 1114
1765 384
962 1365
1764 648
994 23
274 1214
1282 617
1763 252
1362 1207
722 1614
1762 491
594 1900
674 1059
1922 147
1761 48
1746 1114
1954 469
722 1614
66 671
1760 1196
98 314
1810 1836
194 732
1759 85
1874 1914
226 82
274 1214
2 1820
1758 1193
34 954
850 540
194 732
1757 1588
914 1321
226 82
706 1747
738 839
1026 1700
1170 301
930 1493
1362 1207
1426 1627
674 1059
1490 1568
322 1043
1751 1191
354 1374
1746 1114
66 671
1750 1190
1810 1836
98 314
1789 516
1197 1507
1390 1594
1748 1189
1988 1578
526 239
558 1338
1422 1094
1454 343
1746 1114
196 351
526 239
260 800
558 1338
1745 255
1678 439
1710 609
1744 86
1742 638
1774 243
1743 1300
1806 1467
1742 638
270 615
772 1532
302 31
836 535
1390 1594
1740 358
1166 967
1198 287
1739 1513
974 395
1006 409
1738 872
1678 439
1710 609
1075 1894
1348 1576
846 253
878 199
1076 420
782 1854
814 504
1077 1919
590 1904
1734 489
778 371
842 51
906 726
1482 987
1482 987
1080 1429
1610 1391
1997 1823
622 1896
108 799
556 1334
814 504
713 600
1874 1914
1798 548
1620 346
1788 517
1763 252
1221 1303
335 318
1762 491
463 1992
1761 48
591 187
1760 1196
966 1366
271 71
773 1274
774 372
1759 85
1758 1193
1757 1588
590 1904
1902 306
684 342
1830 900
1892 1107
1869 985
1805 1732
97 311
897 1314
77 649
929 822
65 1292
1677 438
353 1375
481 0
1751 1191
673 1469
1750 1190
1293 1248
929 822
1229 1517
897 1314
1165 990
1057 1416
1633 317
1101 1435
1025 316
1748 1189
737 1502
1634 1407
705 859
909 348
225 1822
1635 1430
193 796
1746 1114
33 1574
269 500
1745 255
1869 985
225 1822
1805 1732
193 796
1744 86
1293 1248
97 311
65 1292
1743 1300
1953 389
1677 438
1921 1016
1742 638
673 1469
1641 378
1281 1541
1642 1439
1740 358
1739 1513
930 1493
1452 1606
1644 1019
1738 872
1645 1444
1947 1838
1946 1655
1945 455
2030 1511
390 1051
399 64
773 1274
774 372
15 279
1944 1387
1349 1577
1350 1213
1989 1199
1990 542
15 279
1943 453
197 585
390 1051
1295 639
1942 1456
1221 1303
1941 642
936 1342
876 572
1161 1053
1938 1720
1937 445
1936 435
2 1820
2002 669
1997 1823
1935 863
1798 548
2020 329
2021 1453
1799 1324
1934 198
1612 1396
1933 1424
261 200
1935 863
50 60
49 215
1998 637
46 61
1001 1833
46 61
307 605
906 726
165 1071
164 338
102 1472
44 1243
33 1574
34 954
43 510
1980 1572
1644 1019
1981 362
1645 1444
42 144
1998 637
212 653
211 91
1989 1199
1967 573
210 95
1198 287
209 632
776 1533
208 1503
1388 1148
207 324
1644 1019
1070 2045
1524 1254
883 659
938 551
884 574
206 101
962 1365
961 295
204 624
353 1375
293 511
203 1844
780 802
1743 1300
1166 967
174 1741
776 1533
1964 1318
377 1915
376 1549
373 1256
370 154
369 155
217 566
368 1264
366 1284
481 0
993 413
18 381
994 23
363 1289
222 83
812 1235
1797 855
1775 533
2030 1511
1708 464
2030 1511
173 608
1866 1689
1780 506
1779 709
1154 308
532 978
1229 1517
1153 1092
545 1310
780 802
529 237
12 1595
976 898
1290 550
1669 1939
1551 1276
665 2024
664 1828
1998 637
109 1382
937 1864
110 218
428 1619
743 1862
660 896
673 1469
1869 985
1185 1500
1874 1914
1186 1752
122 1433
44 1243
657 282
812 1235
656 13
714 39
655 1726
654 1393
1999 157
874 45
942 832
905 725
1902 306
786 727
706 1747
781 801
705 859
737 1502
869 560
933 1336
868 1860
867 555
866 1304
934 830
935 1486
672 1468
673 1469
674 1059
852 541
908 349
892 1313
675 331
676 2029
850 540
972 341
677 336
849 326
1359 136
910 1316
105 1471
1898 1096
1972 1260
981 1647
737 1502
980 1481
738 839
700 860
940 1637
977 321
1076 420
1075 1894
1413 1616
1074 1916
814 504
1073 216
1773 534
1072 4
1890 1629
514 984
594 1900
1070 2045
513 1270
929 822
1996 877
1167 305
1487 444
591 187
782 1854
836 535
1709 1932
361 1296
1772 55
1805 1732
545 1310
1810 1836
546 1501
1077 1919
593 63
1004 397
124 1436
2028 988
1105 1050
2000 581
1194 1856
1221 1303
814 504
1645 1444
1188 1307
1187 1308
924 1630
740 570
1186 1752
1730 567
1809 644
529 237
1185 1500
1729 90
992 456
933 1336
1184 1498
1183 1325
1182 1328
1181 1495
1180 1332
1179 1335
1178 1340
1122 1405
1177 1341
991 1652
1176 1485
1175 1369
1174 1480
1173 1477
1172 1736
1633 317
1171 1719
1164 1372
1170 301
1169 52
1164 1372
1168 955
1167 305
650 1723
1134 332
1166 967
1165 990
1999 157
1871 240
463 1992
782 1854
836 535
564 1483
970 1733
1761 48
1425 330
1426 1627
1762 491
1236 1287
1312 1753
965 1082
1646 1008
1221 1303
1999 157
966 1366
1076 420
1002 410
100 1373
209 632
210 95
1297 851
1960 1119
1295 639
1996 877
1294 1555
1293 1248
1397 1605
591 187
1395 1598
1798 548
1394 146
1743 1300
681 1857
1771 661
1634 1407
1390 1594
1388 1148
1101 1435
673 1469
206 101
1105 1050
674 1059
716 1632
2028 988
1225 1299
2001 285
1799 1324
1775 533
1414 1128
1413 1616
1454 343
1167 305
1411 1064
1410 1615
1409 1136
680 1078
235 1840
1698 871
1699 618
1635 1430
1530 1540
1529 1853
1401 1607
1525 808
1524 1254
1522 816
1521 552
465 221
466 1052
1154 308
1537 728
1102 1021
462 1060
1153 1092
1518 845
1488 903
1161 1053
458 1149
1514 854
713 600
783 7
1635 1430
143 968
1634 1407
262 367
1633 317
1422 1094
1668 1032
937 1864
1388 1148
1452 1606
1716 582
1961 1621
105 1471
1897 1126
1742 638
1185 1500
1745 255
1746 1114
1186 1752
748 47
1667 2042
1351 1212
1666 960
263 1535
1665 1703
815 525
1664 964
1791 589
1790 1251
1198 287
1999 157
1789 516
1788 517
1787 518
1948 1058
2020 329
1786 1554
1489 233
1490 1568
1410 1615
1409 1136
1785 1850
1784 723
1800 479
1769 2031
1783 1561
1782 1566
966 1366
911 140
1835 1412
1671 641
1799 1324
263 1535
1830 900
1827 1718
15 279
1826 437
1825 448
965 1082
911 140
943 603
1668 1032
1669 1939
1988 1578
1948 1058
1670 442
1671 641
2017 411
1672 2023
1819 1028
1505 1755
1673 957
1818 1031
1889 662
161 1061
1674 1839
673 1469
1675 1376
1817 449
1816 1725
398 159
1441 1115
1676 956
1677 438
1815 19
1814 454
1442 1625
401 135
1813 1386
1678 439
524 1683
2002 669
1869 985
1868 1499
943 603
1867 1688
772 1532
1866 1689
719 289
1077 1919
1717 670
1524 1254
1525 808
1859 408
1858 415
2046 597
1681 396
1678 439
1601 1093
2041 1246
1889 662
2040 1252
1672 2023
143 968
3 310
79 223
2 1820
751 1205
1641 378
1697 1367
1934 198
1633 317
249 519
1937 445
1634 1407
248 1557
1938 1720
175 1437
281 547
655 1726
687 26
280 539
1451 1139
770 296
1617 1400
277 1583
769 809
276 828
275 73
1889 662
274 1214
273 823
777 1534
778 371
272 53
271 71
386 374
385 1564
1668 1032
2017 411
505 1542
1361 1910
1657 1694
633 1899
2003 1599
719 289
775 1272
774 372
657 282
656 13
1796 1320
655 1726
775 1272
1167 305
654 1393
115 1056
307 605
1971 731
691 865
651 1724
819 531
883 659
650 1723
1075 1894
996 1462
1817 449
770 296
1169 52
390 1051
643 446
1359 136
1167 305
769 809
1166 967
895 1152
161 1061
394 347
936 1342
936 1342
894 576
893 104
892 1313
935 1486
891 1156
398 159
890 1157
399 64
400 1597
889 487
401 135
888 1311
887 1160
1009 959
1743 1300
1006 409
1005 1042
1004 397
1003 1893
1002 410
1039 138
1001 1833
1000 1834
999 1659
998 1049
997 1658
996 1462
1360 388
1168 955
1040 1695
995 412
994 23
993 413
992 456
991 1652
1041 392
981 1647
660 896
1077 1919
1076 420
1799 1324
1075 1894
1775 533
1074 1916
1073 216
1779 709
1072 4
1947 1838
1892 1107
1948 1058
1668 1032
1070 2045
481 0
422 1106
751 1205
1122 1405
15 279
1295 639
1764 648
936 1342
1001 1833
390 1051
1080 1429
1081 417
2004 1144
932 1491
742 357
1236 1287
1993 1298
1315 1242
1671 641
1651 429
1312 1753
1705 1363
1769 2031
1897 1126
1800 479
1961 1621
105 1471
168 620
929 822
1787 518
1788 517
1612 1396
1804 858
1979 1571
2028 988
1980 1572
1996 877
1004 397
972 341
588 1385
1417 1618
1297 851
260 800
259 327
1988 1578
258 1855
257 515
1450 1063
256 1538
545 1310
1609 1113
377 1915
376 1549
1935 863
394 347
1967 573
1871 240
390 1051
263 1535
1450 1063
1418 1069
386 374
665 2024
385 1564
929 822
926 1121
926 1121
261 200
262 367
263 1535
264 1268
265 1531
505 1542
266 807
1673 957
267 1926
2005 584
775 1272
911 140
591 187
776 1533
532 978
1395 1598
529 237
1881 1147
1796 1320
528 1519
527 191
734 103
735 1158
927 1120
526 239
524 1683
523 1286
522 1682
521 983
398 159
736 1159
928 482
544 1309
399 64
400 1597
401 135
514 984
404 1130
513 1270
512 1267
895 1152
737 1502
894 576
893 104
892 1313
891 1156
890 1157
889 487
1673 957
888 1311
905 725
943 603
902 583
264 1268
836 535
899 1829
897 1314
106 1381
42 144
1417 1618
1672 2023
1807 201
1161 1053
1027 405
1026 1700
1743 1300
1025 316
1024 402
883 659
938 551
1145 1380
1181 1495
1775 533
1180 1332
1179 1335
1178 1340
1177 1341
1176 1485
1175 1369
1174 1480
906 726
1173 1477
1172 1736
1179 1335
1171 1719
1170 301
925 2038
925 2038
1169 52
1029 1402
1168 955
2006 1317
1871 240
1194 1856
271 71
1346 1701
1345 443
196 351
1344 1573
1162 231
744 1865
1466 1591
1465 383
1474 1203
1473 1590
197 585
260 800
261 200
1395 1598
1450 1063
399 64
1593 1378
1610 1391
1609 1113
335 318
941 1638
876 572
940 1637
1004 397
1005 1042
713 600
745 1302
1033 2043
1197 1507
905 725
1601 1093
1418 1069
1524 1254
1496 1563
1560 1280
1600 1379
775 1272
1791 589
1790 1251
741 356
1789 516
1478 1204
1788 517
1656 431
751 1205
1787 518
1482 987
1786 1554
2007 798
1803 1749
1802 857
1801 856
1800 479
1799 1324
1798 548
1797 855
1796 1320
1795 320
1794 183
1793 186
1792 283
1983 1222
1642 1439
1982 1224
1347 1903
344 1403
1981 362
1445 1117
1980 1572
1979 1571
1978 711
1990 542
1989 1199
15 279
1988 1578
1987 635
463 1992
1986 1520
1985 499
1610 1391
1716 582
1984 2032
227 492
280 539
168 620
687 26
217 566
1003 1893
1780 506
1413 1616
421 1626
212 653
211 91
210 95
209 632
208 1503
260 800
1999 157
259 327
655 1726
773 1274
258 1855
257 515
1802 857
256 1538
971 873
1975 1261
195 486
2008 806
943 603
837 536
386 374
1783 1561
1867 1688
385 1564
887 1160
1972 1260
2026 982
1764 648
1757 1588
2013 1343
261 200
522 1682
399 64
521 983
911 140
965 1082
1975 1261
1995 490
2027 1415
1994 1301
907 730
939 831
514 984
513 1270
740 570
512 1267
1219 246
1176 1485
680 1078
390 1051
746 838
1797 855
1885 1604
1885 1604
568 1479
394 347
911 140
312 1364
888 1311
1784 723
116 1404
170 1079
795 1548
794 1253
119 1431
171 1084
793 1547
792 1546
56 1544
1976 1259
1912 1249
791 1539
790 1257
612 1110
1797 855
1949 1085
2021 1453
789 1116
788 1851
787 1406
1002 410
786 727
523 1286
1464 1592
785 8
524 1683
943 603
1036 1448
1035 436
847 1023
1033 2043
1039 138
1449 1611
118 1536
1029 1402
1027 405
1208 1305
1035 436
1080 1429
1026 1700
1025 316
1024 402
1797 855
1885 1604
1989 1199
248 1557
1401 1607
505 1542
2009 485
1388 1148
879 92
773 1274
751 1205
1003 1893
682 452
683 496
1269 1263
245 1527
117 1055
1038 1447
1039 138
1040 1695
1041 392
1045 1408
1027 405
1046 432
1362 1207
676 2029
1047 2044
1361 1910
1446 1123
1360 388
165 1071
1359 136
741 356
1450 1063
1706 1088
170 1079
1514 854
1356 979
554 1331
298 476
1355 1686
42 144
1962 1319
1354 1693
1353 1581
42 144
1770 251
1800 479
1352 1211
1706 1088
1057 1416
426 297
1351 1212
1514 854
1350 1213
1642 1439
1706 1088
1349 1577
1768 1216
1348 1576
1347 1903
122 1433
1346 1701
44 1243
12 1595
1345 443
121 1022
1145 1380
1344 1573
1671 641
1935 863
15 279
1934 198
1933 1424
776 1533
1423 1095
1931 1398
775 1272
719 289
1768 1216
553 1494
971 873
1830 900
1799 1324
1766 1837
1958 477
999 1659
1766 1837
1671 641
1923 72
612 1110
1922 147
1635 1430
1921 1016
1496 1563
1707 614
1451 1139
171 1084
1797 855
1920 1550
1885 1604
127 1014
126 2047
1784 723
122 1433
44 1243
125 1438
124 1436
148 406
1455 1146
774 372
143 968
1961 1621
745 1302
1897 1126
1800 479
1898 1096
1769 2031
137 986
1771 661
2022 440
677 336
130 319
733 1150
129 1918
128 1427
1768 1216
1936 435
2027 1415
890 1157
1937 445
1938 1720
463 1992
1672 2023
591 187
16 1015
1225 1299
1161 1053
323 447
322 1043
207 324
1990 542
1989 1199
1641 378
874 45
681 1857
682 452
998 1049
569 1370
568 1479
934 830
934 830
565 1368
564 1483
1188 1307
2012 1974
2013 1343
1884 1603
149 1940
1796 1320
150 1030
563 1484
965 1082
924 1630
996 1462
925 2038
997 1658
562 1691
772 1532
773 1274
152 142
804 520
733 1150
561 1690
153 141
612 1110
421 1626
559 1339
2012 1974
2013 1343
1764 648
1765 384
558 1338
196 351
197 585
228 537
229 1579
612 1110
556 1334
158 1654
100 1373
1948 1058
1949 1085
554 1331
160 461
100 1373
553 1494
1796 1320
1757 1588
1797 855
161 1061
1413 1616
162 627
1445 1117
163 904
164 338
1764 648
1765 384
165 1071
1188 1307
166 1843
676 2029
167 1849
164 338
546 1501
168 620
169 493
545 1310
1976 1259
170 1079
1656 431
779 805
544 1309
811 364
171 1084
1208 1305
779 805
1080 1429
811 364
172 1086
888 1311
907 730
696 507
939 831
173 608
568 1479
1995 490
120 1048
2027 1415
174 1741
1912 1249
1163 1925
1656 431
1195 797
175 1437
1464 1592
1995 490
1208 1305
2027 1415
176 606
952 393
587 969
619 1428
177 30
248 1557
971 873
1003 1893
178 1754
248 1557
1995 490
1976 1259
2027 1415
179 604
1912 1249
1803 1749
1835 1412
1784 723
2040 1252
181 1108
532 978
1644 1019
2010 1118
619 1428
1800 479
612 1110
611 1
610 1704
1961 1621
1962 1319
1705 1363
1000 1834
745 1302
344 1403
935 1486
935 1486
775 1272
999 1659
1959 601
363 1289
1466 1591
460 1200
596 407
1999 157
1671 641
594 1900
681 1857
713 600
680 1078
679 132
1801 856
678 1067
719 289
677 336
676 2029
675 331
15 279
390 1051
674 1059
673 1469
672 1468
1641 378
1769 2031
1705 1363
680 1078
1768 1216
665 2024
664 1828
1784 723
1803 1749
102 1472
660 896
743 1862
1880 1066
1560 1280
1763 252
1795 320
657 282
656 13
655 1726
622 1896
654 1393
625 414
651 1724
650 1723
626 190
227 492
280 539
629 6
428 1619
124 1436
207 324
782 1854
781 801
1033 2043
905 725
720 595
752 1584
780 802
751 1205
779 805
778 371
777 1534
1993 1298
1968 359
1744 86
776 1533
775 1272
774 372
773 1274
772 1532
771 213
1960 1119
770 296
745 1302
769 809
1739 1513
768 1528
1912 1249
895 1152
894 576
292 1129
679 132
893 104
892 1313
891 1156
890 1157
935 1486
524 1683
889 487
716 1632
888 1311
887 1160
886 575
175 1437
885 646
923 1624
976 898
1033 2043
922 1623
975 1991
921 1329
920 484
919 1327
918 40
917 1497
775 1272
916 813
744 1865
915 1132
914 1321
1322 508
913 5
912 1135
911 140
910 1316
38 1238
909 348
908 349
907 730
1879 1062
906 726
905 725
121 1022
748 47
556 1334
902 583
847 1023
143 968
2011 599
80 1509
1897 1126
1105 1050
1897 1126
1104 1432
1103 59
1102 1021
1101 1435
1466 1591
427 1127
120 1048
889 487
879 92
1039 138
1198 287
1197 1507
1195 797
776 1533
1194 1856
361 1296
235 1840
1323 1562
1188 1307
1187 1308
1186 1752
1185 1500
1184 1498
1183 1325
1182 1328
1181 1495
236 628
1580 1512
1180 1332
1179 1335
1178 1340
1177 1341
1176 1485
1175 1369
1174 1480
934 830
933 1336
1173 1477
1172 1736
167 1849
1171 1719
1188 1307
1170 301
1122 1405
1169 52
1401 1607
1168 955
523 1286
1167 305
56 1544
1166 967
762 1223
684 342
763 530
1165 990
1164 1372
271 71
1163 1925
775 1272
975 1991
1162 231
105 1471
749 543
300 1112
937 1864
1001 1833
744 1865
936 1342
1449 1611
680 1078
1641 378
1705 1363
1769 2031
1897 1126
105 1471
936 1342
2025 1692
169 493
1000 1834
824 1924
1236 1287
1233 621
1232 1288
683 496
1231 139
428 1619
1788 517
1230 708
1164 1372
1466 1591
1229 1517
1465 383
1228 1516
1231 139
1227 1515
1673 957
1776 2035
1326 645
812 1235
1323 1562
1322 508
105 1471
1835 1412
1315 1242
1765 384
1959 601
1312 1753
747 833
569 1370
1784 723
952 393
427 1127
1783 1561
119 1431
271 71
775 1272
2012 1974
679 132
875 571
764 2036
1593 1378
1487 444
399 64
1455 1146
1423 1095
271 71
1609 1113
1552 1277
137 986
112 1399
1426 1627
1425 330
741 356
1423 1095
1422 1094
776 1533
1420 1124
939 831
1996 877
2028 988
1419 1125
1518 845
1514 854
1913 1250
1804 858
1785 1850
1721 580
1767 1215
1510 1245
679 132
1000 1834
1506 1558
1356 979
1505 1755
123 1434
1612 1396
394 347
714 39
1674 1839
1610 1391
1482 987
1802 857
1582 631
264 1268
1580 1512
1593 1378
1612 1396
935 1486
1351 1212
167 1849
2027 1415
891 1156
1644 1019
1388 1148
268 2039
2013 1343
1649 220
1744 86
1648 1421
1418 1069
1360 388
1646 1008
750 549
1326 645
1645 1444
1644 1019
1529 1853
1644 1019
292 1129
422 1106
1351 1212
1642 1439
1641 378
1445 1117
300 1112
1635 1430
1868 1499
759 1220
1585 1821
1995 490
760 1523
2027 1415
56 1544
1634 1407
1586 663
1633 317
1699 618
1698 871
1290 550
1697 1367
906 726
1776 2035
1162 231
1696 131
1033 2043
79 223
263 1535
165 1071
164 338
742 357
932 1491
1687 133
2028 988
1644 1019
1761 48
16 1015
1760 1196
1759 85
970 1733
1168 955
1758 1193
911 140
1757 1588
804 520
1751 1191
1750 1190
10 214
2000 581
1827 1718
970 1733
1826 437
1825 448
10 214
1672 2023
1800 479
527 191
559 1339
751 1205
719 289
1167 305
975 1991
15 279
943 603
1819 1028
1818 1031
1401 1607
1817 449
1762 491
1420 1124
1763 252
775 1272
1764 648
1816 1725
1815 19
390 1051
1765 384
1766 1837
1814 454
1767 1215
1813 1386
1768 1216
1812 20
1769 2031
1811 1044
1770 251
1810 1836
1771 661
1809 644
1772 55
1808 450
163 904
355 1470
1315 1242
1773 534
1807 201
1774 243
1806 1467
1775 533
1805 1732
1804 858
1776 2035
1803 1749
102 1472
164 338
1777 134
1802 857
427 1127
1801 856
299 1636
1778 156
267 1926
1800 479
1779 709
1355 1686
1780 506
1799 1324
1781 219
1798 548
1782 1566
1797 855
2014 471
1936 435
842 51
592 1901
1859 408
1994 1301
650 1723
592 1901
1858 415
522 1682
1452 1606
1983 1222
1337 1239
1982 1224
1981 362
1980 1572
483 375
422 1106
1979 1571
1978 711
775 1272
1959 601
172 1086
1977 712
1976 1259
125 1438
1975 1261
2022 440
970 1733
912 1135
944 1756
2021 1453
10 214
714 39
784 1852
2020 329
2019 21
2018 22
2017 411
778 371
1968 359
778 371
912 1135
2016 1463
714 39
2015 457
1164 1372
2014 471
1273 1258
2013 1343
1960 1119
2012 1974
1767 1215
1960 1119
2011 599
2010 1118
2009 485
2008 806
2007 798
263 1535
2006 1317
2005 584
1866 1689
2004 1144
2003 1599
2002 669
1867 1688
2001 285
944 1756
1162 231
1866 1689
848 1831
880 93
458 1149
18 381
17 62
16 1015
15 279
14 205
98 314
38 1238
12 1595
11 1054
99 1917
10 214
680 1078
1768 1216
1799 1324
89 1371
1122 1405
88 1722
87 1476
84 1306
1799 1324
2022 440
1956 602
81 284
2015 457
172 1086
171 1084
170 1079
169 493
1990 542
1956 602
168 620
1767 1215
167 1849
97 311
97 311
38 1238
98 314
166 1843
165 1071
744 1865
1767 1215
679 132
164 338
163 904
125 1438
162 627
248 1557
528 1519
1801 856
1673 957
908 349
889 487
245 1527
743 1862
242 58
999 1659
241 1847
168 620
935 1486
173 608
238 250
1768 1216
174 1741
175 1437
236 628
679 132
176 606
235 1840
935 1486
177 30
178 1754
743 1862
179 604
1000 1834
936 1342
181 1108
229 1579
228 537
744 1865
1768 1216
1959 601
184 37
227 492
679 132
185 829
226 82
744 1865
225 1822
999 1659
224 1587
1768 1216
1960 1119
222 83
866 1304
256 1538
257 515
258 1855
217 566
259 327
260 800
261 200
893 104
370 154
369 155
368 1264
940 1637
1145 1380
366 1284
1767 1215
363 1289
173 608
814 504
1401 1607
1036 1448
1441 1115
1671 641
743 1862
373 1256
1445 1117
404 1130
1315 1242
451 1596
2016 1463
1529 1853
483 375
545 1310
468 288
466 1052
559 1339
558 1338
556 1334
1420 1124
1593 1378
554 1331
553 1494
998 1049
999 1659
1569 232
1560 1280
707 475
1744 86
249 519
1209 647
249 519
953 1737
2028 988
172 1086
57 1543
1996 877
57 1543
1209 647
1081 417
940 1637
908 349
889 487
748 47
890 1157
825 666
716 1632
697 202
556 1334
698 862
596 407
633 1899
524 1683
505 1542
441 1087
313 495
172 1086
594 1900
249 519
121 1022
2028 988
122 1433
593 63
57 1543
1996 877
1977 712
1978 711
561 1690
592 1901
1913 1250
1804 858
1785 1850
1708 464
1786 1554
562 1691
591 187
1529 1853
1676 956
1530 1540
1593 1378
1644 1019
563 1484
590 1904
1657 1694
1612 1396
1452 1606
564 1483
1530 1540
565 1368
588 1385
792 1546
739 94
587 969
586 973
568 1479
569 1370
966 1366
657 282
714 39
656 13
655 1726
654 1393
715 387
1035 436
715 387
778 371
1931 1398
75 1832
176 606
651 1724
650 1723
1466 1591
679 132
1957 1111
1441 1115
643 446
2017 411
814 504
779 805
812 1235
811 364
524 1683
556 1334
172 1086
675 331
737 1502
804 520
1765 384
803 1559
119 1431
11 1054
1913 1250
1977 712
76 1098
108 799
1721 580
1740 358
2041 1246
44 1243
1145 1380
12 1595
660 896
1785 1850
1004 397
972 341
953 1737
1081 417
1868 1499
377 1915
953 1737
889 487
121 1022
664 1828
1081 417
795 1548
1145 1380
665 2024
1273 1258
794 1253
1465 383
761 810
793 1547
1465 383
825 666
792 1546
791 1539
459 1192
1867 1688
1931 1398
779 805
715 387
1163 1925
713 600
1776 2035
428 1619
935 1486
869 560
1441 1115
1155 315
1657 1694
1772 55
852 541
126 2047
894 576
929 822
928 482
927 1120
777 1534
926 1121
521 983
1168 955
925 2038
924 1630
923 1624
922 1623
921 1329
1466 1591
920 484
1187 1308
919 1327
736 1159
1440 1262
918 40
917 1497
293 511
916 813
915 1132
866 1304
1593 1378
12 1595
867 555
914 1321
977 321
976 898
975 1991
974 395
174 1741
1773 534
1774 243
972 341
971 873
970 1733
1283 616
121 1022
44 1243
966 1366
2018 22
1080 1429
1198 287
1197 1507
1077 1919
1076 420
76 1098
108 799
1075 1894
1315 1242
1074 1916
1073 216
1072 4
1351 1212
1070 2045
2041 1246
1612 1396
96 1012
88 1722
89 1371
1209 647
1913 1250
1964 1318
1208 1305
1163 1925
720 595
686 502
2025 1692
1644 1019
163 904
1635 1430
1979 1571
1868 1499
123 1434
12 1595
1772 55
1089 1443
1740 358
940 1637
1090 717
908 349
1091 1018
123 1434
1979 1571
1787 518
1360 388
1419 1125
1418 1069
1337 1239
1993 1298
46 61
1333 1727
1228 1516
928 482
1330 1565
920 484
1859 408
921 1329
419 1628
1326 645
377 1915
43 510
699 861
44 1243
2019 21
1504 1244
1902 306
110 218
1081 417
1145 1380
1036 1448
1496 1563
1174 1480
163 904
344 1403
1891 325
1892 1107
352 403
1492 1241
1996 877
118 1536
1529 1853
843 74
1902 306
302 31
1209 647
1569 232
2028 988
1505 1755
366 1284
1961 1621
2030 1511
1635 1430
1612 1396
1273 1258
1634 1407
2019 21
918 40
1633 317
149 1940
1687 133
1731 841
921 1329
1892 1107
928 482
766 1570
118 1536
11 1054
1977 712
1706 1088
1705 1363
174 1741
878 199
1702 1083
1529 1853
1580 1512
1644 1019
698 862
1699 618
1698 871
965 1082
1697 1367
1817 449
1696 131
1699 618
1815 19
1813 1386
1685 1068
789 1116
67 668
99 1917
1987 635
1768 1216
1897 1126
1959 601
1769 2031
168 620
2041 1246
43 510
886 575
428 1619
1641 378
2020 329
235 1840
400 1597
651 1724
942 832
313 495
908 349
229 1579
1635 1430
228 537
1751 1191
1667 2042
227 492
226 82
225 1822
996 1462
224 1587
1760 1196
997 1658
222 83
844 538
217 566
121 1022
546 1501
545 1310
11 1054
544 1309
302 31
175 1437
1006 409
940 1637
889 487
532 978
529 237
936 1342
528 1519
236 628
527 191
526 239
238 250
524 1683
1219 246
1173 1477
523 1286
1174 1480
1091 1018
1175 1369
241 1847
522 1682
242 58
521 983
680 1078
743 1862
935 1486
245 1527
1000 1834
248 1557
514 984
249 519
1768 1216
1671 641
513 1270
1960 1119
512 1267
263 1535
679 132
744 1865
936 1342
1000 1834
1089 1443
185 829
1090 717
184 37
1091 1018
1641 378
697 202
181 1108
1323 1562
459 1192
179 604
876 572
178 1754
126 2047
177 30
894 576
1645 1444
1869 985
176 606
1101 1435
1869 985
175 1437
1102 1021
174 1741
1790 1251
1005 1042
1103 59
173 608
2046 597
172 1086
1772 55
1771 661
907 730
1770 251
1070 2045
1769 2031
1768 1216
1767 1215
699 861
1635 1430
1766 1837
1765 384
1047 2044
931 827
1046 432
1764 648
1763 252
1762 491
1761 48
1760 1196
1759 85
1758 1193
2009 485
36 1237
2016 1463
1757 1588
1672 2023
1420 1124
715 387
695 467
57 1543
1878 1247
1036 1448
716 1632
1420 1124
1877 379
1876 380
1875 1545
1874 1914
1873 68
1872 382
1134 332
1871 240
1870 69
1952 28
1869 985
2015 457
1868 1499
1945 455
1867 1688
1866 1689
899 1829
981 1647
1795 320
1699 618
1667 2042
1411 1064
1859 408
1173 1477
1091 1018
1858 415
1941 642
99 1917
67 668
1045 1408
1187 1308
1155 315
149 1940
1699 618
1773 534
1667 2042
1774 243
1983 1222
1775 533
1982 1224
2025 1692
1776 2035
1981 362
1081 417
1777 134
1980 1572
1995 490
2027 1415
1778 156
1979 1571
1978 711
747 833
1452 1606
1779 709
1780 506
1977 712
1976 1259
2021 1453
125 1438
1035 436
2000 581
124 1436
971 873
123 1434
1198 287
122 1433
121 1022
176 606
120 1048
739 94
119 1431
118 1536
1411 1064
117 1055
1881 1147
100 1373
116 1404
1951 1358
1887 1142
1888 598
115 1056
743 1862
114 54
113 9
169 493
699 861
588 1385
112 1399
651 1724
758 70
110 218
109 1382
1273 1258
108 799
908 349
972 341
1995 490
203 1844
245 1527
905 725
752 1584
242 58
1676 956
1868 1499
1785 1850
241 1847
890 1157
238 250
1768 1216
1960 1119
236 628
235 1840
1960 1119
1960 1119
168 620
126 2047
229 1579
127 1014
228 537
1696 131
256 1538
227 492
257 515
226 82
225 1822
791 1539
707 475
258 1855
259 327
224 1587
361 1296
260 800
377 1915
261 200
222 83
262 367
1080 1429
376 1549
427 1127
263 1535
264 1268
265 1531
266 807
217 566
267 1926
268 2039
269 500
270 615
271 71
212 653
272 53
211 91
273 823
210 95
274 1214
209 632
275 73
208 1503
276 828
277 1583
207 324
683 496
206 101
700 860
204 624
702 473
280 539
203 1844
281 547
1791 589
1996 877
16 1015
716 1632
720 595
505 1542
1326 645
501 1255
664 1828
792 1546
498 254
497 1017
1877 379
1764 648
553 1494
494 1020
1983 1222
1662 1824
701 472
1661 1660
483 375
716 1632
481 0
480 1567
478 1240
971 873
522 1682
650 1723
1225 1299
1033 2043
633 1899
791 1539
1173 1477
1987 635
2019 21
1091 1018
35 1712
3 310
629 6
2005 584
626 190
625 414
680 1078
745 1302
622 1896
1163 1925
2022 440
1163 1925
11 1054
1168 955
1390 1594
804 520
803 1559
795 1548
355 1470
794 1253
1955 470
793 1547
149 1940
67 668
149 1940
792 1546
789 1116
89 1371
36 1237
791 1539
790 1257
937 1864
789 1116
834 652
788 1851
835 636
715 387
1872 382
1868 1499
1227 1515
1610 1391
2000 581
1609 1113
1993 1298
1708 464
1786 1554
1977 712
1978 711
981 1647
2009 485
980 1481
790 1257
99 1917
195 486
277 1583
977 321
1923 72
976 898
277 1583
975 1991
974 395
323 447
972 341
1195 797
971 873
523 1286
1188 1307
905 725
976 898
1187 1308
1186 1752
163 904
280 539
1185 1500
1184 1498
1183 1325
227 492
1219 246
1182 1328
1181 1495
1881 1147
1956 602
1180 1332
1179 1335
940 1637
1178 1340
1177 1341
1282 617
651 1724
1281 1541
267 1926
10 214
1033 2043
1164 1372
972 341
569 1370
1401 1607
1817 449
1882 1143
1397 1605
1395 1598
212 653
1556 1279
276 828
1394 146
276 828
148 406
2004 1144
996 1462
1194 1856
876 572
1195 797
1197 1507
1390 1594
1198 287
971 873
976 898
971 873
16 1015
2019 21
88 1722
1569 232
340 958
468 288
468 288
1812 20
1813 1386
1818 1031
932 1491
1641 378
748 47
1269 1263
1141 1383
1077 1919
1323 1562
1461 989
118 1536
1740 358
11 1054
972 341
1699 618
1698 871
944 1756
1697 1367
1696 131
660 896
852 541
1987 635
24 1206
684 342
1897 1126
1642 1439
117 1055
971 873
1872 382
12 1595
1227 1515
1228 1516
2000 581
12 1595
912 1135
1033 2043
1923 72
1922 147
1944 1387
1827 1718
1921 1016
1764 648
1819 1028
1174 1480
1920 1550
127 1014
1876 380
1702 1083
126 2047
724 1131
125 1438
1818 1031
124 1436
1898 1096
1800 479
169 493
170 1079
1705 1363
123 1434
122 1433
556 1334
1706 1088
121 1022
1707 614
885 646
120 1048
249 519
1931 1398
248 1557
137 986
112 1399
112 1399
245 1527
1946 1655
1748 1189
242 58
241 1847
1795 320
1880 1066
622 1896
686 502
814 504
361 1296
238 250
425 1622
523 1286
1872 382
1419 1125
1420 1124
80 1509
422 1106
592 1901
421 1626
419 1628
418 630
11 1054
416 1631
1072 4
1699 618
1883 1602
1620 346
1684 1065
2010 1118
264 1268
745 1302
512 1267
174 1741
105 1471
1710 609
777 1534
513 1270
750 549
949 27
404 1130
514 984
622 1896
1675 1376
1648 1421
368 1264
265 1531
266 807
619 1428
688 1639
1776 2035
276 828
795 1548
1796 1320
1884 1603
1883 1602
612 1110
611 1
1667 2042
1496 1563
610 1704
622 1896
814 504
942 832
713 600
745 1302
558 1338
942 832
2028 988
713 600
878 199
680 1078
746 838
715 387
1612 1396
394 347
176 606
804 520
1635 1430
1560 1280
803 1559
1884 1603
1668 1032
874 45
795 1548
1708 464
794 1253
373 1256
1867 1688
2001 285
899 1829
1676 956
897 1314
1995 490
522 1682
521 983
1004 397
724 1131
1884 1603
1013 1034
811 364
1010 1037
1452 1606
812 1235
1009 959
937 1864
1006 409
814 504
815 525
1006 409
1077 1919
77 649
1005 1042
2025 1692
1154 308
1153 1092
1803 1749
1804 858
586 973
177 30
817 1846
1777 134
1560 1280
1273 1258
1269 1263
1266 1271
1796 1320
1265 1275
902 583
905 725
906 726
907 730
908 349
909 348
910 1316
911 140
1796 1320
912 1135
1948 1058
913 5
596 407
914 1321
1684 1065
915 1132
916 813
1070 2045
905 725
917 1497
918 40
1709 1932
172 1086
173 608
919 1327
920 484
921 1329
922 1623
923 1624
1236 1287
1867 1688
924 1630
949 27
843 74
950 1097
925 2038
1645 1444
1644 1019
1868 1499
1905 339
1997 1823
17 62
1642 1439
779 805
1641 378
688 1639
714 39
241 1847
1585 1821
497 1017
1980 1572
76 1098
1635 1430
1634 1407
1748 1189
1633 317
1668 1032
879 92
1198 287
875 571
1845 1895
109 1382
1716 582
1931 1398
1168 955
1715 1848
1996 877
1714 710
587 969
715 387
656 13
779 805
1713 1640
1711 1643
778 371
1710 609
1709 1932
1708 464
1707 614
1706 1088
1705 1363
1841 901
1702 1083
1988 1578
2020 329
1699 618
1698 871
1646 1008
1697 1367
1696 131
1648 1421
724 1131
1649 220
1650 423
1651 429
264 1268
1653 1911
556 1334
1663 145
749 543
1687 133
1656 431
1657 1694
128 1427
1685 1068
1684 1065
1750 1190
1936 435
268 2039
1748 1189
1997 1823
269 500
1937 445
1969 230
1869 985
1746 1114
1805 1732
781 801
1169 52
1933 1424
1201 667
1297 851
689 503
688 1639
1036 1448
780 802
1745 255
1997 1823
1744 86
1743 1300
1035 436
1742 638
1969 230
689 503
1740 358
881 488
1905 339
1739 1513
1738 872
922 1623
923 1624
1734 489
164 338
1731 841
740 570
1730 567
932 1491
1180 1332
1729 90
1988 1578
1728 1151
924 1630
2020 329
1180 1332
164 338
164 338
100 1373
1180 1332
1668 1032
1717 670
1845 1895
1188 1307
1948 1058
100 1373
1180 1332
1842 951
1721 580
1841 901
746 838
1781 219
971 873
2026 982
1867 1688
656 13
1868 1499
1859 408
1858 415
1983 1222
1982 1224
1981 362
1805 1732
1980 1572
1745 255
1979 1571
1978 711
1977 712
1976 1259
1975 1261
1973 729
1972 1260
1971 731
1970 1863
1812 20
724 1131
674 1059
1154 308
1236 1287
1186 1752
1969 230
1282 617
1968 359
1967 573
1966 840
1965 111
1964 1318
1963 853
1962 1319
1961 1621
1960 1119
924 1630
1959 601
1958 477
1957 1111
1956 602
1955 470
1954 469
1455 1146
1953 389
494 1020
425 1622
302 31
1952 28
1951 1358
174 1741
1950 607
105 1471
1751 1191
1949 1085
1948 1058
1947 1838
1419 1125
1946 1655
2022 440
2021 1453
2020 329
2019 21
2018 22
84 1306
2017 411
2016 1463
2015 457
2014 471
1002 410
936 1342
2013 1343
1965 111
1609 1113
2012 1974
2011 599
2010 1118
42 144
1677 438
1777 134
523 1286
38 1238
852 541
1634 1407
36 1237
35 1712
34 954
1445 1117
33 1574
32 1575
2030 1511
175 1437
105 1471
1641 378
192 1930
1141 1383
1003 1893
1451 1139
2025 1692
75 1832
1361 1910
67 668
66 671
916 813
1858 415
788 1851
65 1292
1811 1044
275 73
1705 1363
1775 533
1801 856
587 969
694 1907
11 1054
2037 1285
43 510
1663 145
1165 990
1662 1824
44 1243
185 829
2027 1415
229 1579
228 537
227 492
787 1406
738 839
226 82
340 958
1890 1629
225 1822
224 1587
1897 1126
1673 957
1967 573
222 83
1711 1643
105 1471
1024 402
1773 534
1780 506
1140 1389
1973 729
1009 959
309 1357
1677 438
1617 1400
1612 1396
12 1595
307 605
588 1385
524 1683
716 1632
267 1926
1858 415
1875 1545
302 31
300 1112
299 1636
1773 534
1801 856
298 476
619 1428
1972 1260
235 1840
1197 1507
293 511
236 628
292 1129
238 250
291 41
290 1613
241 1847
242 58
286 345
245 1527
354 1374
1649 220
353 1375
352 403
977 321
268 2039
204 624
350 1384
275 73
706 1747
916 813
1890 1629
344 1403
999 1659
997 1658
1450 1063
1024 402
340 958
390 1051
497 1017
465 221
1869 985
1873 68
1933 1424
1905 339
386 374
385 1564
1000 1834
741 356
1812 20
962 1365
505 1542
1933 1424
355 1470
1965 111
768 1528
501 1255
2028 988
561 1690
1873 68
559 1339
49 215
1997 1823
558 1338
556 1334
554 1331
1748 1189
994 23
553 1494
1642 1439
715 387
693 864
565 1368
1653 1911
546 1501
545 1310
544 1309
692 29
564 1483
714 39
394 347
704 1109
909 348
947 1100
17 62
1101 1435
945 294
913 5
946 509
1869 985
625 414
593 63
945 294
1165 990
753 182
781 801
721 151
944 1756
177 30
77 649
943 603
1933 1424
945 294
942 832
941 1638
940 1637
939 831
938 551
1165 990
1229 1517
937 1864
1293 1248
269 500
1009 959
17 62
49 215
977 321
936 1342
1905 339
935 1486
934 830
1228 1516
933 1336
932 1491
931 827
930 1493
2 1820
929 822
1282 617
928 482
915 1132
927 1120
926 1121
1770 251
1771 661
925 2038
562 1691
924 1630
563 1484
34 954
1013 1034
2004 1144
34 954
925 2038
1767 1215
1010 1037
1672 2023
1009 959
1006 409
430 180
526 239
718 303
14 205
1101 1435
81 284
428 1619
524 1683
427 1127
426 297
425 1622
66 671
2 1820
422 1106
421 1626
554 1331
1645 1444
1709 1932
419 1628
1449 1611
1417 1618
1709 1932
418 630
416 1631
619 1428
12 1595
944 1756
2000 581
972 341
690 870
882 658
1906 1929
34 954
1876 380
98 314
612 1110
611 1
996 1462
998 1049
1705 1363
1768 1216
1001 1833
610 1704
683 496
682 452
1769 2031
763 530
1230 708
1166 967
1102 1021
113 9
762 1223
912 1135
761 810
844 538
760 1523
1897 1126
759 1220
733 1150
758 70
757 557
1684 1065
1730 567
2 1820
756 1291
755 826
1171 1719
754 1861
112 1399
875 571
753 182
752 1584
1161 1053
751 1205
769 809
705 859
750 549
622 1896
943 603
942 832
1868 1499
1676 956
716 1632
656 13
941 1638
780 802
688 1639
1228 1516
1168 955
940 1637
524 1683
1676 956
939 831
460 1200
716 1632
938 551
1740 358
1648 1421
844 538
784 1852
937 1864
76 1098
784 1852
936 1342
935 1486
1073 216
1137 640
1201 667
934 830
933 1336
754 1861
932 1491
931 827
418 630
930 1493
1620 346
1762 491
929 822
764 2036
928 482
927 1120
776 1533
1003 1893
765 1234
766 1570
926 1121
767 365
1005 1042
925 2038
1024 402
924 1630
206 101
1745 255
1970 1863
1800 479
1897 1126
1001 1833
1800 479
1145 1380
1769 2031
1672 2023
425 1622
1141 1383
1961 1621
1140 1389
553 1494
169 493
681 1857
1672 2023
1138 1392
1137 640
1705 1363
169 493
1134 332
1449 1611
1449 1611
168 620
168 620
944 1756
937 1864
945 294
946 509
936 1342
947 1100
948 1099
949 27
1556 1279
2 1820
950 1097
386 374
1122 1405
952 393
953 1737
749 543
2030 1511
1038 1447
49 215
1265 1275
906 726
1283 616
1778 156
1282 617
1281 1541
1811 1044
1875 1545
1346 1701
258 1855
290 1613
84 1306
34 954
1765 384
1401 1607
935 1486
1001 1833
1451 1139
1397 1605
1452 1606
1004 397
1395 1598
1394 146
1390 1594
1388 1148
1161 1053
1005 1042
1473 1590
1454 343
1006 409
1474 1203
681 1857
1569 232
654 1393
1998 637
1870 69
1806 1467
938 551
744 1865
1000 1834
1560 1280
96 1012
2004 1144
1922 147
1556 1279
2018 22
1986 1520
2003 1599
1553 1278
1552 1277
1551 1276
1641 378
1711 1643
1455 1146
1710 609
1537 728
1791 589
1790 1251
137 986
1789 516
1801 856
1788 517
1102 1021
2001 285
909 348
1998 637
974 395
910 1316
650 1723
1845 1895
1875 1545
787 1406
1811 1044
1842 951
1841 901
211 91
1171 1719
1835 1412
930 1493
1986 1520
2018 22
1875 1545
1154 308
1186 1752
1986 1520
1171 1719
2018 22
915 1132
578 234
610 1704
1830 900
211 91
962 1365
994 23
211 91
1986 1520
2018 22
1875 1545
1794 183
1811 1044
1826 437
1827 1718
2003 1599
1634 1407
1826 437
386 374
418 630
1825 448
514 984
546 1501
1474 1203
1506 1558
915 1132
386 374
418 630
1474 1203
1506 1558
1876 380
1954 469
1819 1028
478 1240
1818 1031
1817 449
1816 1725
1815 19
1814 454
1813 1386
1812 20
109 1382
169 493
1811 1044
1888 598
1887 1142
1886 1608
1650 423
1885 1604
680 1078
681 1857
1884 1603
1883 1602
1882 1143
1881 1147
1765 384
350 1384
1880 1066
1812 20
722 1614
850 540
1879 1062
1878 1247
1993 1298
1877 379
1876 380
1875 1545
1957 1111
1956 602
1955 470
1457 1928
682 452
1954 469
1953 389
1714 710
1952 28
1951 1358
1950 607
1949 1085
340 958
930 1493
1948 1058
286 345
1947 1838
1946 1655
1945 455
1944 1387
1943 453
1889 662
1942 1456
1890 1629
1941 642
688 1639
713 600
1891 325
1965 111
2025 1692
691 865
563 1484
1651 429
1892 1107
1993 1298
654 1393
2033 244
1990 542
14 205
1989 1199
1804 858
1988 1578
1987 635
1986 1520
1985 499
1492 1241
1730 567
1984 2032
1801 856
745 1302
176 606
112 1399
110 218
109 1382
108 799
107 328
106 1381
1521 552
458 1149
1074 1916
105 1471
914 1321
1812 20
1762 491
102 1472
100 1373
99 1917
98 314
97 311
1994 1301
96 1012
1995 490
1996 877
1997 1823
1998 637
1999 157
2000 581
2001 285
89 1371
2002 669
88 1722
87 1476
2003 1599
2004 1144
2005 584
1773 534
2006 1317
84 1306
170 1079
169 493
401 135
334 424
168 620
167 1849
166 1843
846 253
165 1071
164 338
163 904
1585 1821
162 627
1858 415
161 1061
160 461
1709 1932
1609 1113
158 1654
1801 856
225 1822
224 1587
222 83
909 348
1649 220
1394 146
914 1321
2004 1144
1890 1629
217 566
1641 378
1710 609
212 653
300 1112
299 1636
298 476
1713 1640
293 511
292 1129
84 1306
2 1820
291 41
290 1613
1582 631
1417 1618
1518 845
366 1284
363 1289
361 1296
660 896
34 954
1161 1053
1390 1594
1449 1611
355 1470
354 1374
353 1375
352 403
302 31
350 1384
425 1622
780 802
422 1106
421 1626
1777 134
700 860
419 1628
418 630
416 1631
1986 1520
368 1264
1648 1421
404 1130
368 1264
369 155
2033 244
462 1060
460 1200
944 1756
844 538
459 1192
1841 901
106 1381
458 1149
2018 22
451 1596
265 1531
944 1756
1001 1833
880 93
777 1534
752 1584
596 407
1905 339
906 726
1842 951
594 1900
593 63
592 1901
1236 1287
386 374
591 187
590 1904
369 155
266 807
241 1847
298 476
113 9
10 214
433 333
1457 1928
1162 231
1265 1275
1194 1856
1009 959
588 1385
1968 359
587 969
586 973
176 606
1769 2031
368 1264
425 1622
688 1639
684 342
683 496
912 1135
972 341
682 452
681 1857
680 1078
1046 432
679 132
340 958
418 630
158 1654
678 1067
222 83
158 1654
677 336
478 1240
676 2029
421 1626
478 1240
675 331
421 1626
674 1059
673 1469
561 1690
672 1468
1776 2035
948 1099
716 1632
715 387
1072 4
714 39
1906 1929
938 551
113 9
713 600
916 813
834 652
918 40
707 475
706 1747
881 488
705 859
778 371
704 1109
1076 420
1089 1443
2034 188
1164 1372
1040 1695
1101 1435
869 560
868 1860
866 1304
867 555
866 1304
689 503
458 1149
625 414
1898 1096
935 1486
1165 990
934 830
780 802
752 1584
781 801
933 1336
741 356
350 1384
1410 1615
932 1491
682 452
931 827
753 182
458 1149
930 1493
561 1690
929 822
1866 1689
948 1099
928 482
1774 243
927 1120
926 1121
996 1462
462 1060
995 412
994 23
993 413
992 456
991 1652
720 595
1101 1435
1645 1444
936 1342
937 1864
938 551
939 831
940 1637
941 1638
942 832
943 603
981 1647
944 1756
980 1481
945 294
919 1327
946 509
87 1476
947 1100
1047 2044
948 1099
977 321
976 898
1442 1625
949 27
975 1991
950 1097
1073 216
974 395
817 1846
945 294
842 51
874 45
650 1723
1009 959
952 393
972 341
953 1737
880 93
971 873
970 1733
1776 2035
1968 359
966 1366
1024 402
112 1399
965 1082
1025 316
752 1584
1026 1700
963 1735
1027 405
962 1365
1648 1421
961 295
1029 1402
1642 1439
884 574
1164 1372
1163 1925
1162 231
1161 1053
1201 667
1265 1275
1322 508
1155 315
1674 1839
1154 308
1153 1092
116 1404
1610 1391
1236 1287
398 159
1996 877
208 1503
1233 621
1232 1288
1231 139
1230 708
1229 1517
1290 550
1457 1928
1228 1516
1227 1515
1322 508
562 1691
399 64
1297 851
1295 639
1294 1555
1293 1248
1290 550
1514 854
1585 1821
1742 638
17 62
1585 1821
1137 640
881 488
650 1723
753 182
682 452
110 218
497 1017
266 807
369 155
298 476
109 1382
177 30
1802 857
1905 339
108 799
1649 220
1418 1069
1521 552
1450 1063
107 328
1265 1275
1137 640
106 1381
945 294
650 1723
753 182
682 452
105 1471
561 1690
394 347
369 155
426 297
177 30
10 214
1312 1753
2033 244
42 144
1841 901
1674 1839
1649 220
1706 1088
102 1472
49 215
106 1381
1905 339
1315 1242
1841 901
1962 1319
100 1373
1777 134
1994 1301
177 30
2026 982
99 1917
433 333
497 1017
98 314
1482 987
97 311
96 1012
398 159
399 64
1166 967
270 615
271 71
206 101
622 1896
1797 855
846 253
350 1384
1326 645
1330 1565
1333 1727
1935 863
1936 435
1460 1007
1935 863
689 503
1998 637
1935 863
1999 157
1742 638
1793 186
1344 1573
1345 443
1346 1701
1347 1903
1229 1517
935 1486
1401 1607
212 653
1090 717
211 91
210 95
209 632
1169 52
952 393
953 1737
1409 1136
1410 1615
143 968
401 135
1168 955
1774 243
591 187
369 155
945 294
1295 639
143 968
1999 157
1684 1065
1685 1068
1687 133
1169 52
591 187
622 1896
238 250
1774 243
1641 378
494 1020
1797 855
1642 1439
1972 1260
1971 731
1970 1863
1768 1216
1825 448
1826 437
1827 1718
238 250
1830 900
1166 967
1742 638
1774 243
1742 638
17 62
977 321
914 1321
399 64
238 250
115 1056
1998 637
398 159
271 71
1717 670
1395 1598
398 159
398 159
1891 325
1892 1107
1778 156
209 632
1746 1114
399 64
622 1896
17 62
1169 52
1999 157
591 187
1999 157
1169 52
1552 1277
401 135
2001 285
17 62
1935 863
181 1108
238 250
179 604
784 1852
17 62
421 1626
1459 1011
1936 435
591 187
399 64
271 71
971 873
1057 1416
102 1472
105 1471
106 1381
107 328
108 799
109 1382
110 218
17 62
112 1399
113 9
114 54
1395 1598
115 1056
398 159
116 1404
401 135
1936 435
1169 52
1166 967
2001 285
1167 305
1169 52
591 187
592 1901
1656 431
105 1471
848 1831
271 71
401 135
1936 435
971 873
1888 598
1889 662
1890 1629
1891 325
591 187
1892 1107
1641 378
1897 1126
1898 1096
1902 306
1999 157
1984 2032
704 1109
238 250
401 135
1641 378
590 1904
271 71
271 71
78 634
1793 186
110 218
1089 1443
1198 287
1585 1821
1641 378
340 958
258 1855
788 1851
789 1116
790 1257
791 1539
792 1546
1553 1278
1490 1568
971 873
118 1536
1782 1566
950 1097
886 575
1356 979
1359 136
1360 388
1361 1910
1362 1207
997 1658
1952 28
1888 598
1797 855
399 64
401 135
2001 285
271 71
399 64
2001 285
1999 157
1998 637
1362 1207
465 221
654 1393
259 327
2020 329
2021 1453
2022 440
2025 1692
344 1403
2026 982
2027 1415
2028 988
2030 1511
1641 378
2033 244
2034 188
2033 244
1642 1439
2037 1285
2040 1252
2041 1246
2034 188
2046 597
1998 637
1169 52
1953 389
105 1471
654 1393
399 64
591 187
591 187
271 71
238 250
2001 285
1198 287
335 318
654 1393
720 595
401 135
399 64
398 159
84 1306
87 1476
88 1722
1166 967
2001 285
1742 638
401 135
1998 637
1198 287
1585 1821
733 1150
734 103
735 1158
736 1159
737 1502
738 839
739 94
740 570
741 356
742 357
1169 52
743 1862
744 1865
745 1302
1166 967
746 838
747 833
748 47
17 62
401 135
1641 378
50 60
1970 1863
1906 1929
1455 1146
1921 1016
271 71
1666 960
1742 638
514 984
1797 855
401 135
401 135
398 159
399 64
398 159
280 539
1730 567
281 547
1105 1050
946 509
17 62
2002 669
529 237
2034 188
977 321
914 1321
818 1526
1937 445
657 282
1170 301
1233 621
1202 1508
1617 1400
2002 669
17 62
2034 188
337 189
594 1900
657 282
626 190
913 5
1041 392
1010 1037
1105 1050
2002 669
622 1896
1937 445
2034 188
1873 68
1810 1836
1745 255
1842 951
1681 396
1553 1278
1650 423
1489 233
1425 330
434 1133
2001 285
416 1631
418 630
419 1628
421 1626
422 1106
425 1622
1797 855
426 297
427 1127
428 1619
591 187
430 180
1859 408
2001 285
1185 1500
654 1393
1684 1065
1685 1068
1687 133
654 1393
1970 1863
401 135
401 135
399 64
399 64
398 159
164 338
165 1071
398 159
401 135
398 159
401 135
591 187
1742 638
17 62
1122 1405
1998 637
17 62
1774 243
741 356
927 1120
926 1121
480 1567
481 0
483 375
654 1393
925 2038
494 1020
401 135
401 135
1999 157
1999 
206 101
680 1078
681 1857
1998 637
682 452
683 496
684 342
685 613
686 502
687 26
688 1639
689 503
690 870
691 865
692 29
693 864
694 1907
1166 967
399 64
399 64
398 159
398 159
401 135
1
401 
164 
17 62
952 393
43 510
271 71
44 1243
46 61
323 447
259 327
1734 489
1635 1430
1634 1407
1633 317
300 1112
1633 317
302 31
1794 183
307 605
309 1357
312 1364
313 495
1793 186
1778 156
753 182
754 1861
1454 343
400 1597
1933 1424
1209 647
867 555
868 1860
869 560
1664 964
1665 1703
1666 960
1667 2042
1668 1032
1669 1939
1670 442
1633 317
1671 641
1672 2023
1673 957
1674 1839
1675 1376
1676 956
1677 438
1678 439
2001 285
1742 638
2001 285
1999 157
1998 637
1166 967
228 537
2012 1974
2013 1343
229 1579
2014 471
2015 457
2016 1463
2017 411
2018 22
2019 21
2020 329
2021 1453
2022 440
2025 1692
2026 982
2027 1415
2028 988
523 1286
1589 1377
654 1393
401 135
1
401 
400 
1873 68
399 64
399 64
398 159
398 159
1524 1254
654 1393
910 1316
622 1896
1232 1288
76 1098
77 649
1233 621
1998 637
1569 232
1774 243
1768 1216
238 250
1633 317
2001 285
1283 616
1999 157
1998 637
1998 637
206 101
1569 232
399 64
399 64
398 159
398 159
203 1844
1163 1925
75 1832
622 1896
418 630
419 1628
1988 1578
1668 1032
1797 855
971 873
398 159
1
398 
975 
899 1829
238 250
17 62
17 62
34 
1137 
654 1393
1648 1421
1797 855
206 101
1029 1402
1166 967
1641 378
1998 637
1998 637
1796 
1569 232
1569 
354 1374
355 1470
1312 1753
1315 1242
1668 1032
1198 287
1742 638
1797 855
1169 52
1742 638
654 1393
935 1486
1165 990
399 64
399 64
591 187
1774 243
18 381
206 101
1169 52
1010 1037
1166 967
1668 1032
206 101
238 250
1742 638
1794 183
1774 243
622 1896
935 1486
1180 1332
1074 1916
1181 1495
1182 1328
1183 1325
1668 1032
1184 1498
1185 1500
1186 1752
1742 638
1666 960
935 1486
935 1486
935 1486
1514 854
1518 845
238 250
1521 552
399 64
399 64
1522 816
1522 
1797 855
1524 1254
1525 808
206 101
260 800
238 250
654 1393
238 250
1668 1032
1569 232
334 424
1998 637
1998 637
1998 637
1
1998 
196 
1445 1117
1446 1123
1449 1611
1774 243
1450 1063
1451 1139
1452 1606
1454 343
1999 157
1768 1216
1455 1146
1166 967
236 628
622 1896
1674 1839
1668 1032
1790 1251
1791 589
105 1471
206 101
238 250
512 1267
117 1055
118 1536
513 1270
119 1431
120 1048
121 1022
122 1433
123 1434
124 1436
125 1438
126 2047
127 1014
1728 1151
399 64
399 64
399 64
1
399 
1221 1303
1221 
207 324
622 1896
1349 1577
1413 1616
591 187
815 525
783 7
1413 1616
879 92
1349 1577
847 1023
1711 1643
1221 1303
1679 304
975 1991
1198 287
1029 1402
1166 967
965 1082
1167 305
837 536
1359 136
773 1274
271 71
1807 201
1775 533
1742 638
1743 1300
1711 1643
1679 304
261 200
559 1339
197 585
527 191
1455 1146
1423 1095
559 1339
527 191
1989 1199
1359 136
238 250
238 250
207 324
1669 1939
837 536
1231 139
1999 157
1792 283
1793 186
1794 183
1742 638
1734 489
1641 378
1633 317
271 71
591 187
591 187
1742 638
1742 638
1350 
1998 637
1998 637
261 
1935 
781 801
1661 1660
292 1129
1198 287
1166 967
56 1544
57 1543
206 101
1797 855
1971 731
935 1486
544 1309
545 1310
546 1501
105 1471
654 1393
553 1494
1999 157
1774 243
1710 609
1167 305
1633 317
1080 1429
1081 417
1858 415
1859 408
1999 157
1169 52
591 187
591 187
1167 305
1166 967
427 1127
1999 157
1999 157
591 187
591 187
105 1471
1827 1718
1826 437
1315 1242
1167 305
1668 1032
1322 508
1323 1562
2001 285
965 1082
1668 1032
1999 157
1999 157
1666 
1633 317
1641 378
1642 1439
1644 1019
1633 317
1461 989
1460 1007
1610 1391
1641 378
10 214
825 666
1668 1032
1169 52
1166 967
935 1486
271 71
743 1862
399 64
1
399 
398 
398 159
1
398 
1038 1447
286 345
290 1613
291 41
292 1129
293 511
298 476
849 326
848 1831
897 1314
654 1393
847 1023
846 253
404 1130
1167 305
1668 1032
105 1471
1962 1319
774 372
1697 1367
1696 131
773 1274
399 64
1
399 
398 159
1
398 
268 2039
269 500
270 615
271 71
271 71
272 53
273 823
274 1214
275 73
276 828
277 1583
280 539
281 547
286 345
733 1150
1169 52
1169 52
824 1924
664 1828
719 289
1347 1903
1348 1576
1349 1577
1350 1213
1351 1212
1352 1211
1353 1581
1715 1848
1797 855
1779 709
772 1532
1976 1259
568 1479
1080 1429
262 367
120 1048
263 1535
264 1268
265 1531
1797 855
1797 855
847 1023
747 833
235 1840
1003 1893
1768 1216
1835 1412
1707 614
427 1127
1707 614
1771 661
43 510
1963 853
43 510
299 1636
1797 855
1797 855
803 1559
804 520
758 70
651 1724
759 1220
811 364
812 1235
814 504
815 525
757 557
817 1846
818 1526
819 531
820 360
821 1226
756 1291
650 1723
824 1924
825 666
1920 1550
1921 1016
740 570
1884 1603
1988 1578
1948 1058
2020 329
1941 642
1942 1456
1943 453
1944 1387
1945 455
1946 1655
1947 1838
1948 1058
1949 1085
1950 607
1951 1358
1952 28
1953 389
1954 469
1767 1215
1955 470
1956 602
1957 1111
1958 477
1959 601
1960 1119
1961 1621
1962 1319
1768 1216
1963 853
1964 1318
1965 111
1966 840
1967 573
265 1531
1968 359
1969 230
1970 1863
1971 731
1972 1260
1973 729
1975 1261
1976 1259
1977 712
271 71
271 71
554 
553 
1644 1019
935 1486
935 1486
1641 378
1768 1216
622 1896
262 367
263 1535
Heartbeat CPU 0 instructions: 10000003 cycles: 15155734 heartbeat IPC: 0.659817 cumulative IPC: 0.612136 (Simulation time: 0 hr 0 min 15 sec) 
654 1393
654 1393
265 1531
264 1268
1167 305
1167 305
1225 1299
1168 955
935 1486
935 1486
1641 378
1641 378
713 600
847 1023
1783 1561
299 1636
924 1630
298 476
925 2038
926 1121
927 1120
928 482
929 822
930 1493
931 827
932 1491
933 1336
934 830
935 1486
935 1486
936 1342
936 
271 71
271 71
775 
1766 1837
1641 378
1641 378
1175 
1167 305
1167 305
812 
1166 967
1166 
172 1086
742 357
1977 712
2028 988
1644 1019
1866 1689
1994 1301
765 1234
263 1535
1641 378
1641 378
935 1486
935 1486
1633 317
168 620
1774 243
1774 243
1768 1216
1702 1083
1705 1363
680 1078
1706 1088
1644 1019
1707 614
1708 464
1709 1932
1710 609
1711 1643
1713 1640
1714 710
1715 1848
1716 582
1717 670
1768 1216
263 1535
2001 285
2001 285
17 62
17 62
1990 
1956 
96 1012
97 311
98 314
99 1917
100 1373
935 1486
935 1486
102 1472
1768 1216
105 1471
106 1381
935 1486
935 1486
107 328
108 799
109 1382
110 218
112 1399
113 9
114 54
115 1056
116 1404
1569 232
890 1157
1956 602
1644 1019
478 1240
480 1567
481 0
483 375
126 2047
654 1393
654 1393
779 805
1057 1416
97 311
685 613
1081 417
1173 1477
1644 1019
110 218
1739 1513
1738 872
920 484
1816 1725
1569 232
1641 378
1641 378
935 1486
1
935 
1768 1216
1633 317
1633 317
1580 1512
1641 378
1641 378
1671 641
263 1535
1707 614
1708 464
1709 1932
1768 1216
1768 1216
1710 609
1711 1643
1713 1640
1714 710
935 1486
1
935 
1715 1848
1716 582
1717 670
238 250
238 250
1721 580
1721 
1984 2032
1985 499
1986 1520
1987 635
1988 1578
1989 1199
1990 542
366 1284
1993 1298
1994 1301
1995 490
1996 877
1997 1823
1998 637
1999 157
2000 581
168 620
368 1264
460 1200
952 393
953 1737
263 1535
1879 1062
1880 1066
1881 1147
1882 1143
1883 1602
1884 1603
1885 1604
1886 1608
1887 1142
1888 598
1644 1019
1644 1019
1889 662
1890 1629
110 218
1891 325
1892 1107
748 47
Finished CPU 0 instructions: 10000001 cycles: 16189738 cumulative IPC: 0.617675 (Simulation time: 0 hr 0 min 16 sec) 

ChampSim completed all CPUs

Region of Interest Statistics

CPU 0 cumulative IPC: 0.617675 instructions: 10000001 cycles: 16189738
L1D TOTAL     ACCESS:    3536077  HIT:    3502139  MISS:      33938
L1D LOAD      ACCESS:    2223589  HIT:    2191752  MISS:      31837
L1D RFO       ACCESS:    1312488  HIT:    1310387  MISS:       2101
L1D PREFETCH  ACCESS:          0  HIT:          0  MISS:          0
L1D WRITEBACK ACCESS:          0  HIT:          0  MISS:          0
L1D PREFETCH  REQUESTED:          0  ISSUED:          0  USEFUL:          0  USELESS:          0
L1D AVERAGE MISS LATENCY: 103.056 cycles
L1I TOTAL     ACCESS:    1555086  HIT:    1555086  MISS:          0
L1I LOAD      ACCESS:    1555086  HIT:    1555086  MISS:          0
L1I RFO       ACCESS:          0  HIT:          0  MISS:          0
L1I PREFETCH  ACCESS:          0  HIT:          0  MISS:          0
L1I WRITEBACK ACCESS:          0  HIT:          0  MISS:          0
L1I PREFETCH  REQUESTED:          0  ISSUED:          0  USEFUL:          0  USELESS:          0
L1I AVERAGE MISS LATENCY: nan cycles
L2C TOTAL     ACCESS:      51249  HIT:      24495  MISS:      26754
L2C LOAD      ACCESS:      31836  HIT:       7001  MISS:      24835
L2C RFO       ACCESS:       2101  HIT:        184  MISS:       1917
L2C PREFETCH  ACCESS:          0  HIT:          0  MISS:          0
L2C WRITEBACK ACCESS:      17312  HIT:      17310  MISS:          2
L2C PREFETCH  REQUESTED:          0  ISSUED:          0  USEFUL:          0  USELESS:          0
L2C AVERAGE MISS LATENCY: 111.392 cycles
LLC TOTAL     ACCESS:      39546  HIT:      24142  MISS:      15404
LLC LOAD      ACCESS:      24835  HIT:      11094  MISS:      13741
LLC RFO       ACCESS:       1917  HIT:        254  MISS:       1663
LLC PREFETCH  ACCESS:          0  HIT:          0  MISS:          0
LLC WRITEBACK ACCESS:      12794  HIT:      12794  MISS:          0
LLC PREFETCH  REQUESTED:          0  ISSUED:          0  USEFUL:          0  USELESS:          0
LLC AVERAGE MISS LATENCY: 141.28 cycles
Major fault: 0 Minor fault: 1555

DRAM Statistics
 CHANNEL 0
 RQ ROW_BUFFER_HIT:       5002  ROW_BUFFER_MISS:      10402
 DBUS_CONGESTED:        600
 WQ ROW_BUFFER_HIT:          9  ROW_BUFFER_MISS:        281  FULL:          0

 AVG_CONGESTED_CYCLE: 5

CPU 0 Branch Prediction Accuracy: 78.1788% MPKI: 28.492 Average ROB Occupancy at Mispredict: 26.3705

Branch types
NOT_BRANCH: 8694148 86.9415%
BRANCH_DIRECT_JUMP: 51115 0.51115%
BRANCH_INDIRECT: 0 0%
BRANCH_CONDITIONAL: 982625 9.82625%
BRANCH_DIRECT_CALL: 135980 1.3598%
BRANCH_INDIRECT_CALL: 0 0%
BRANCH_RETURN: 135982 1.35982%
BRANCH_OTHER: 0 0%

